/*--------------------------------*- C++ -*----------------------------------*\
| =========                 |                                                 |
| \\      /  F ield         | OpenFOAM: The Open Source CFD Toolbox           |
|  \\    /   O peration     | Version:  1.7.1                                 |
|   \\  /    A nd           | Web:      www.OpenFOAM.com                      |
|    \\/     M anipulation  |                                                 |
\*---------------------------------------------------------------------------*/
FoamFile
{
    version     2.0;
    format      ascii;
    class       uniformDimensionedVectorField;
    location    "constant";
    object      g;
}
// * * * * * * * * * * * * * * * * * * * * * * * * * * * * * * * * * * * * * //

dimensions      [0 1 -2 0 0 0 0];
// tiltangle = 23° 
//value           ( 3.8330723704797753 -9.03015261236844 0 );
//value           ( 0 -9.03015261236844 0 );

// tilt angfle = 26°
//value           ( 4.3004209500008495 -8.817169594194828 0);
value           ( 0 -8.817169594194828 0);


// ************************************************************************* //
