/*--------------------------------*- C++ -*----------------------------------*\
| =========                 |                                                 |
| \\      /  F ield         | OpenFOAM: The Open Source CFD Toolbox           |
|  \\    /   O peration     | Version:  2.1.0                                 |
|   \\  /    A nd           | Web:      www.OpenFOAM.org                      |
|    \\/     M anipulation  |                                                 |
\*---------------------------------------------------------------------------*/
FoamFile
{
    version     2.0;
    format      ascii;
    class       volScalarField;
    location    "0";
    object      Theta;
}
// * * * * * * * * * * * * * * * * * * * * * * * * * * * * * * * * * * * * * //

dimensions      [0 2 -2 0 0 0 0];

internalField   uniform 1e-6; 

boundaryField
{
    cylinder
    {
        type            zeroGradient;
    }
    inlet
    {
	type		fixedValue;
	value		uniform 1e-6;
    }
    pit
    {
        type            zeroGradient;
    }
    outlet
    {
        type            zeroGradient;
    }
    outletb
    {
        type            zeroGradient;
    }
    lateral
    {
        type            cyclic;
    }
    symplane
    {
        type            cyclic;
    }
    bottom
    {
        type            zeroGradient;
    }
    surface
    {
        type            zeroGradient;
    }
}


// ************************************************************************* //
