/*--------------------------------*- C++ -*----------------------------------*\
| =========                 |                                                 |
| \\      /  F ield         | OpenFOAM: The Open Source CFD Toolbox           |
|  \\    /   O peration     | Version:  v2306                                 |
|   \\  /    A nd           | Website:  www.openfoam.com                      |
|    \\/     M anipulation  |                                                 |
\*---------------------------------------------------------------------------*/
FoamFile
{
    version     2.0;
    format      ascii;
    class       dictionary;
    location    "system";
    object      fvSchemes;
}
// * * * * * * * * * * * * * * * * * * * * * * * * * * * * * * * * * * * * * //

ddtSchemes
{
    default         backward;
 //  default	Euler;
}

gradSchemes
{
        default         Gauss linear;
}

divSchemes
{
//    default         Gauss upwind phi;
    default         Gauss linear;

// alphaEqn   

div(phi,alpha)  Gauss limitedLinear01 1;
  div(phir,alpha) Gauss limitedLinear01 1;
// UEqn
//div(phia,Ua)    Gauss upwind;
//div(phib,Ub)    Gauss upwind;
 
   div(phia,Ua)    Gauss limitedLinearV 1;
   div(phib,Ub)    Gauss limitedLinearV 1;
    div(phiRa,Ua)   Gauss limitedLinear 1;
    div(phiRb,Ub)   Gauss limitedLinear 1;
    
    
    div(phiRa,Ua)   Gauss limitedLinear 1;
    div(phiRb,Ub)   Gauss limitedLinear 1;
    
// alphaPlastic
    div(phia,alphaPlastic)    Gauss linear;
// pa
    div(phia,pa_new_value)    Gauss linear;
// pEqn
    div(alpha,nu) Gauss linear;
// k and EpsilonEqn
    div(phib,k)     Gauss limitedLinear 1;
    div(phib,omega) Gauss limitedLinear 1;
    div(phib,epsilon) Gauss limitedLinear 1;
// ThetaEqn
    div(phi,Theta)  Gauss limitedLinear 1;
    
}

laplacianSchemes
{
    default         Gauss linear corrected;
// alphaEqn
    laplacian(Da,alpha_a)  Gauss linear corrected;
   // laplacian(alphaPpMag,alpha) Gauss linear corrected;
// UEqn
    laplacian(nuEffa,Ua) Gauss linear corrected;
    laplacian(nuEffb,Ub) Gauss linear corrected;
    laplacian(nuFra,Ua)  Gauss linear corrected;
// pEqn
    laplacian((rho*(1|A(U))),p_rbgh) Gauss linear corrected;
// k and EpsilonEqn 
    laplacian(DkEff,k) Gauss linear corrected;
    laplacian(DkEff,beta) Gauss linear corrected;
    laplacian(DomegaEff,omega) Gauss linear corrected;
    laplacian(DepsilonEff,epsilon) Gauss linear corrected;
    laplacian(DepsilonEff,beta) Gauss linear corrected;
//ThetaEqn
    laplacian(kappa,Theta) Gauss linear corrected;
}

interpolationSchemes
{
    default  linear;
}

snGradSchemes
{
    default         corrected;
}
oversetInterpolation
{
    method          cellVolumeWeight;

}
fluxRequired
{
    default         no;
    p_rbgh               ;
}


// ************************************************************************* //
