/*--------------------------------*- C++ -*----------------------------------*\
| =========                 |                                                 |
| \\      /  F ield         | OpenFOAM: The Open Source CFD Toolbox           |
|  \\    /   O peration     | Version:  v2306                                 |
|   \\  /    A nd           | Website:  www.openfoam.com                      |
|    \\/     M anipulation  |                                                 |
\*---------------------------------------------------------------------------*/
FoamFile
{
    version     2.0;
    format      ascii;
    class       dictionary;
    location    "constant";
    object      forceProperties;
}
// * * * * * * * * * * * * * * * * * * * * * * * * * * * * * * * * * * * * * //

// * * * * * * * * * * * * * following are for presure * * * * * * * * * * * * * * * //
gradPMEAN        gradPMEAN        [ 1 -2 -2 0 0 0 0 ] (0 0 0 ); // mean pressure

Cvm             Cvm [ 0 0 0 0 0 ] 0;                // Virtual/Added Mass coefficient

Cl              Cl [ 0 0 0 0 0 ] 0;                 // Lift force coefficient

Ct              Ct [ 0 0 0 0 0 ] 0;                 // Eddy diffusivity coefficient for phase a

debugInfo	true;


ClipUa 1; 
// * * * * * * * * * * * * end of definition of pressure * * * * * * * * * * * * * //
