/*--------------------------------*- C++ -*----------------------------------*\
| =========                 |                                                 |
| \\      /  F ield         | OpenFOAM: The Open Source CFD Toolbox           |
|  \\    /   O peration     | Version:  2.4.0                                 |
|   \\  /    A nd           | Web:      www.OpenFOAM.com                      |
|    \\/     M anipulation  |                                                 |
\*---------------------------------------------------------------------------*/
FoamFile
{
    version     2.0;
    format      ascii;
    class       dictionary;
    location    "system";
    object      fvSolution;
}
// * * * * * * * * * * * * * * * * * * * * * * * * * * * * * * * * * * * * * //

solvers
{
    p_rbgh
    {
        solver          GAMG;
        tolerance       1e-9;
        relTol          0.0001;
        smoother        DIC;
        nPreSweeps      0;
        nPostSweeps     2;
        nFinestSweeps   2;
        cacheAgglomeration true;
        nCellsInCoarsestLevel 10;
        agglomerator    faceAreaPair;
        mergeLevels     1;
    }

    p_rbghFinal
    {
        $p_rbgh;
        tolerance       1e-9;
        relTol          0;
    }

    "(alpha.a|Theta|pa_new_value|alphaPlastic)"
    {
        solver          PBiCG;
        preconditioner  DILU;
        tolerance       1e-9;
        relTol          0;
    }
    "(alpha.aFinal|ThetaFinal|paFinal|alphaPlasticFinal)"
    {
        solver          PBiCG;
        preconditioner  DILU;
        tolerance       1e-9;
        relTol          0;
    }
}

PIMPLE
{
    momentumPredictor 0;
    nOuterCorrectors  1;
    nCorrectors     1;
    nNonOrthogonalCorrectors 0;
    correctAlpha    0;
    nAlphaCorr      1;
    pRefCell        0;
    pRefValue       0;
}

// ************************************************************************* //
