/*--------------------------------*- C++ -*----------------------------------*\
| =========                 |                                                 |
| \\      /  F ield         | OpenFOAM: The Open Source CFD Toolbox           |
|  \\    /   O peration     | Version:  2.4.0                                 |
|   \\  /    A nd           | Web:      www.OpenFOAM.org                      |
|    \\/     M anipulation  |                                                 |
\*---------------------------------------------------------------------------*/
FoamFile
{
    version     2.0;
    format      ascii;
    class       volScalarField;
    location    "0";
    object      alpha;
}
// * * * * * * * * * * * * * * * * * * * * * * * * * * * * * * * * * * * * * //

dimensions      [0 0 0 0 0 0 0];

internalField   uniform 0; 

boundaryField
{
    inandouthalf11 // inlet
    {
        type            cyclic;
    }
    inandouthalf12
    {
        type            cyclic;
//       type            zeroGradient;
    }
    inandouthalf21
    {
        type            cyclic;
//	type		zeroGradient;
    }
    inandouthalf22
    {
        type            cyclic;
//	type		zeroGradient;
    }
    top
    {
        type            fixedValue;
	    value 		    uniform 0;
//        type            symmetryPlane;
//        type            zeroGradient;
    }
    walls
    {
        type            zeroGradient;
    }
    frontAndBackPlanes
    {
        type            empty;
    }
}


// ************************************************************************* //
