/*--------------------------------*- C++ -*----------------------------------*\
| =========                 |                                                 |
| \\      /  F ield         | OpenFOAM: The Open Source CFD Toolbox           |
|  \\    /   O peration     | Version:  2.4.0                                 |
|   \\  /    A nd           | Web:      www.OpenFOAM.org                      |
|    \\/     M anipulation  |                                                 |
\*---------------------------------------------------------------------------*/
FoamFile
{
    version     2.0;
    format      ascii;
    class       volVectorField;
    location    "0";
    object      Ub;
}
// * * * * * * * * * * * * * * * * * * * * * * * * * * * * * * * * * * * * * //

dimensions      [0 1 -1 0 0 0 0];

internalField   uniform (0 0 0);

boundaryField
{
    inandouthalf11 // inlet
    {
        type            cyclic;
    }
    inandouthalf12
    {
        type            cyclic;
//        type            directionMixed;
//        refValue uniform (0 0 0);
//        refGradient uniform (0 0 0);
//        valueFraction uniform (0 0 0 1 0 1);
    }
    inandouthalf21
    {
        type            cyclic;
//        type            fixedValue;
//        value           uniform (0 0 0);
    }
    inandouthalf22
    {
        type            cyclic;
//      type            fixedValue;
//      value           uniform (0 0 0);
    }
    top
    {
//        type            symmetryPlane;
        type            zeroGradient;
    }
    walls
    {
        type            fixedValue;
        value           uniform (0 0 0);
    }
    frontAndBackPlanes
    {
        type            empty;
    }
}


// ************************************************************************* //
