/*--------------------------------*- C++ -*----------------------------------*\
| =========                 |                                                 |
| \\      /  F ield         | OpenFOAM: The Open Source CFD Toolbox           |
|  \\    /   O peration     | Version:  1.7.1                                 |
|   \\  /    A nd           | Web:      www.OpenFOAM.com                      |
|    \\/     M anipulation  |                                                 |
\*---------------------------------------------------------------------------*/
FoamFile
{
    version     2.0;
    format      ascii;
    class       dictionary;
    object      blockMeshDict;
}
// * * * * * * * * * * * * * * * * * * * * * * * * * * * * * * * * * * * * * //

scale 0.1;

vertices        
(
    (-10.005 -1   10.005) //0
    ( 10.005 -1   10.005) //1
    ( 10.005 0.  10.005) //2
    (-10.005 0.  10.005) //3
    (-10.005 -1  -10.005) //4
    ( 10.005 -1  -10.005) //5
    ( 10.005 0. -10.005) //6
    (-10.005 0. -10.005) //7
);

blocks          
(
    hex (0 1 5 4 3 2 6 7) (1 1 120) simpleGrading (1 1 1)
);

edges           
(
);

boundary         
(
    inlet 
    {
     type   cyclic;
     neighbourPatch outlet;
     faces ((0 3 7 4));
    }
    outlet
    {
     type   cyclic;
     neighbourPatch  inlet;
     faces  ((1 5 6 2));
    }
    top
    { 
     type wall;
        faces ((7 6 2 3));
    }
    bottom 
    {
     type wall;
     faces ((0 4 5 1)); 
    }
    frontAndBackPlanes
    {
    type empty;
    faces (
           (0 1 2 3)
           (4 7 6 5)
          );
    }
);

mergePatchPairs
(
);

// ************************************************************************* //
