/*--------------------------------*- C++ -*----------------------------------*\
| =========                 |                                                 |
| \\      /  F ield         | OpenFOAM: The Open Source CFD Toolbox           |
|  \\    /   O peration     | Version:  1.7.1                                 |
|   \\  /    A nd           | Web:      www.OpenFOAM.com                      |
|    \\/     M anipulation  |                                                 |
\*---------------------------------------------------------------------------*/
FoamFile
{
    version     2.0;
    format      ascii;
    class       dictionary;
    location    "system";
    object      fvSchemes;
}
// * * * * * * * * * * * * * * * * * * * * * * * * * * * * * * * * * * * * * //

ddtSchemes
{
    default         Euler;
}

gradSchemes
{
    default         Gauss linear;
}

divSchemes
{
    default         none;
// alphaEqn
    div(phi,alpha)  Gauss upwind;//limitedLinear01 1;
    div(phir,alpha) Gauss upwind;//limitedLinear01 1;
// UEqn
    div(phi.a,U.a)    Gauss limitedLinearV 1;
    div(phi.b,U.b)    Gauss limitedLinearV 1;
    div(phiRa,Ua)   Gauss limitedLinear 1;
    div(phiRb,Ub)   Gauss limitedLinear 1;
    div(Rca)        Gauss linear;
    div(Rcb)        Gauss linear;
// pEqn
    div(alpha,nu)   Gauss linear;
// alphaPlastic
    div(phia,alphaPlastic)   Gauss limitedLinear01 1;
// pa
    div(phia,pa_new_value)   Gauss limitedLinear 1;
}

laplacianSchemes
{
    default         none;
// UEqn
    laplacian(nuEffa,U.a) Gauss linear corrected;
    laplacian(nuEffb,U.b) Gauss linear corrected;
    laplacian(nuFra,U.a)  Gauss linear corrected;
// pEqn
    laplacian((rho*(1|A(U))),p_rbgh) Gauss linear corrected;
}

interpolationSchemes
{
    default  linear;
}

snGradSchemes
{
    default         corrected;
}

fluxRequired
{
    default         no;
    p_rbgh               ;
}


// ************************************************************************* //
