/*--------------------------------*- C++ -*----------------------------------*\
| =========                 |                                                 |
| \\      /  F ield         | OpenFOAM: The Open Source CFD Toolbox           |
|  \\    /   O peration     | Version:  plus                                  |
|   \\  /    A nd           | Web:      www.OpenFOAM.com                      |
|    \\/     M anipulation  |                                                 |
\*---------------------------------------------------------------------------*/
FoamFile
{
    version     2.0;
    format      ascii;
    class       dictionary;
    object      fvSolution;
}
// * * * * * * * * * * * * * * * * * * * * * * * * * * * * * * * * * * * * * //

solvers
{
    cellDisplacement
    {
        solver          PCG;
        preconditioner  DIC;

        tolerance       1e-08;
        relTol          0;
        maxIter         500;
    }

    p_rbgh
    {
        solver          PBiCGStab;
        preconditioner  DILU;
        tolerance       1e-6;
        relTol          0.0;
        maxIter         1000;
    }

    p_rbghFinal
    {
        solver          PBiCGStab;
        preconditioner  DILU;
        tolerance       1e-9;
        relTol          0.0;
    }

    pcorr
    {
        $pFinal;
        solver          PCG;
        preconditioner  DIC;
        tolerance 1e-7;
        relTol 0.01;
    }

    pcorrFinal
    {
        $pcorr;
        relTol          0.1;
        tolerance 1e-7;
    }

    "(U|alpha.a|pa|k|epsilon)"
    {

        solver          PBiCG;
        preconditioner  DILU;
        tolerance       1e-6;
        relTol          0;

//        solver          smoothSolver;
  //      smoother        symGaussSeidel;
    //    tolerance       1e-6;
      //  relTol          0.0;
    }

    "(U|alpha.a|pa|k|epsilon)Final"
    {
        $U;
        tolerance       1e-9;
        relTol          0;
    }
}

PIMPLE
{
    momentumPredictor   no;
    oversetAdjustPhi    true;
    nOuterCorrectors    20;
    nCorrectors         1;
    nNonOrthogonalCorrectors 1;
    massFluxInterpolation true;
    ddtCorr             false;
    turbOnFinalIterOnly false;
    moveMeshOuterCorrectors yes;
	nAlphaCorr 1;
}

relaxationFactors
{
    fields
    {
        p_rbgh               0.7;
    }
    equations
    {
        "(U|k|omega)"   1;
        ".*Final"        0.70;
    }
}


// ************************************************************************* //
