/*--------------------------------*- C++ -*----------------------------------*\
| =========                 |                                                 |
| \\      /  F ield         | OpenFOAM: The Open Source CFD Toolbox           |
|  \\    /   O peration     | Version:  v2306                                 |
|   \\  /    A nd           | Website:  www.openfoam.com                      |
|    \\/     M anipulation  |                                                 |
\*---------------------------------------------------------------------------*/
FoamFile
{
    version     2.0;
    format      ascii;
    class       dictionary;
    object      topoSetDict;
}
// * * * * * * * * * * * * * * * * * * * * * * * * * * * * * * * * * * * * * //

actions
(
    {
        name    c0;
        type    cellSet;
        action  new;
        source  regionToCell;
        sourceInfo
        {
            insidePoints ((-0.004 -0.004 -0.049));
        }
    }

    {
        name    c1;
        type    cellSet;
        action  new;
        source  cellToCell;
        sourceInfo
        {
            set c0;
        }
    }

    {
        name    c1;
        type    cellSet;
        action  invert;
    }
);

// ************************************************************************* //
