/*--------------------------------*- C++ -*----------------------------------*\
| =========                 |                                                 |
| \\      /  F ield         | OpenFOAM: The Open Source CFD Toolbox           |
|  \\    /   O peration     | Version:  1.7.1                                 |
|   \\  /    A nd           | Web:      www.OpenFOAM.com                      |
|    \\/     M anipulation  |                                                 |
\*---------------------------------------------------------------------------*/
FoamFile
{
    version     2.0;
    format      ascii;
    class       dictionary;
    location    "system";
    object      fvSchemes;
}
// * * * * * * * * * * * * * * * * * * * * * * * * * * * * * * * * * * * * * //

ddtSchemes
{
    default         Euler;
}

gradSchemes
{
        default         Gauss linear;
        grad(epsilon.b)        cellLimited Gauss linear 1;
        grad(k.b)        cellLimited Gauss linear 1;
        grad(omega.b)    cellLimited Gauss linear 1;
}

divSchemes
{
    default         none;

// alphaEqn
    div(phi,alpha)  Gauss limitedLinear01 1;
    div(phir,alpha) Gauss limitedLinear01 1;
//    div(phi,alpha)   Gauss vanLeer;
//    div(phir,alpha)  Gauss vanLeer;
// UEqn
    div(phi.a,U.a)    Gauss linearUpwind grad(Ua);
    div(phi.b,U.b)    Gauss linearUpwind grad(Ub);
//    div(phi.a,U.a)    Gauss upwind phi;
//    div(phi.b,U.b)    Gauss upwind phi;
    div(phiRa,Ua)   Gauss linear;
    div(phiRb,Ub)   Gauss linear;
//    div(phiRa,Ua)   Gauss upwind phi;
//    div(phiRb,Ub)   Gauss upwind phi;
    div(Rca)        Gauss linear;
    div(Rcb)        Gauss linear;
// pEqn
    div(alpha,nu) Gauss linear;
// k and EpsilonEqn
    div(phi.b,k.b)     Gauss linearUpwind grad(k);
    div(phi.b,epsilon.b) Gauss linearUpwind grad(epsilon);
    div(phi.b,omega.b) Gauss linearUpwind grad(omega);
//    div(phi.b,k.b)     Gauss upwind phi;
//    div(phi.b,epsilon.b) Gauss upwind phi;
//    div(phi.b,omega.b) Gauss upwind phi;
// ThetaEqn
    div(phi,Theta)  Gauss limitedLinear 1;
// alphaPlastic
    div(phia,alphaPlastic)    Gauss upwind;
// pa
    div(phia,pa_new_value)    Gauss upwind;
}

laplacianSchemes
{
    default         Gauss linear corrected;
// alphaEqn
    laplacian(alphaPpMag,alpha) Gauss linear corrected;
// UEqn
    laplacian(nuEffa,Ua) Gauss linear corrected;
    laplacian(nuEffb,Ub) Gauss linear corrected;
    laplacian(nuFra,Ua)  Gauss linear corrected;
// pEqn
    laplacian((rho*(1|A(U))),p) Gauss linear corrected;
// k and EpsilonEqn 
    laplacian(DkEff,k) Gauss linear corrected;
    laplacian(DkEff,beta) Gauss linear corrected;
    laplacian(DomegaEff,omega) Gauss linear corrected;
    laplacian(DepsilonEff,epsilon) Gauss linear corrected;
    laplacian(DepsilonEff,beta) Gauss linear corrected;
//ThetaEqn
    laplacian(kappa,Theta) Gauss linear corrected;
}

interpolationSchemes
{
    default  linear;
}

snGradSchemes
{
    default         corrected;
}

fluxRequired
{
    default         no;
    p_rbgh               ;
}


// ************************************************************************* //
