/*--------------------------------*- C++ -*----------------------------------*\
| =========                 |                                                 |
| \\      /  F ield         | OpenFOAM: The Open Source CFD Toolbox           |
|  \\    /   O peration     | Version:  2.4.0                                 |
|   \\  /    A nd           | Web:      www.OpenFOAM.org                      |
|    \\/     M anipulation  |                                                 |
\*---------------------------------------------------------------------------*/
FoamFile
{
    version     2.0;
    format      ascii;
    class       dictionary;
    location    "constant";
    object      granaularRheologyProperties;
}
// * * * * * * * * * * * * * * * * * * * * * * * * * * * * * * * * * * * * * //

granularRheology   off;

granularDilatancy  off;

alphaMaxG       alphaMaxG [ 0 0 0 0 0 0 0 ] 0.6;

mus             mus  [ 0 0 0 0 0 0 0 ] 0.38;

mu2             mu2  [ 0 0 0 0 0 0 0 ] 0.64;

I0              I0  [ 0 0 0 0 0 0 0 ] 0.3;

Bphi            Bphi [ 0 0 0 0 0 0 0 ] 0.31;

n               n [ 0 0 0 0 0 0 0 ] 2.5;

BulkFactor      BulkFactor [ 0 0 0 0 0 0 0 ] 1e0;

relaxPa         relaxPa [ 0 0 -0 0 0 0 0 ] 1;

FrictionModel   MuI;

//PPressureModel  none;
PPressureModel  MuI;

FluidViscosityModel  none;

DilatancyModel  none;
// ************************************************************************* //
