/*--------------------------------*- C++ -*----------------------------------*\
| =========                 |                                                 |
| \\      /  F ield         | OpenFOAM: The Open Source CFD Toolbox           |
|  \\    /   O peration     | Version:  1.7.1                                 |
|   \\  /    A nd           | Web:      www.OpenFOAM.com                      |
|    \\/     M anipulation  |                                                 |
\*---------------------------------------------------------------------------*/
FoamFile
{
    version     2.0;
    format      ascii;
    class       dictionary;
    location    "constant";
    object      transportProperties;
}
// * * * * * * * * * * * * sediment properties * * * * * * * * * * * * //
phasea
{
    rho             rho [ 1 -3 0 0 0 ] 1;
    nu              nu [ 0 2 -1 0 0 ] 0e0;
    d               d [ 0 1 0 0 0 0 0 ] 1.e-7;
    sF              sF   [ 0 0  0 0 0 0 0 ] 1;
    hExp            hExp [ 0 0  0 0 0 0 0 ] 2.65;  // hindrance exponent for drag: beta^(-hExp) (2.65 by default)
}

phaseb
{
    rho             rho [ 1 -3 0 0 0 ] 1;
    nu              nu [ 0 2 -1 0 0 ] 7.2727e-5;
    d               d [ 0 1 0 0 0 0 0 ] 3.e-3;
    sF              sF   [ 0 0  0 0 0 0 0 ] 0.5;
    hExp            hExp [ 0 0  0 0 0 0 0 ] 2.65;
}
//*********************************************************************** //
transportModel  Newtonian;

nu              nu [ 0 2 -1 0 0 0 0 ] 7.2727e-5;

nuMax           nuMax [0 2 -1 0 0 0 0] 1e-1;      // viscosity limiter for the Frictional model (required for stability)

alphaSmall      alphaSmall [ 0 0 0 0 0 0 0 ] 1e-6;  // minimum volume fraction (phase a) for division by alpha 

// ************************************************************************* //
