/*--------------------------------*- C++ -*----------------------------------*\
| =========                 |                                                 |
| \\      /  F ield         | OpenFOAM: The Open Source CFD Toolbox           |
|  \\    /   O peration     | Version:  1.7.1                                 |
|   \\  /    A nd           | Web:      www.OpenFOAM.com                      |
|    \\/     M anipulation  |                                                 |
\*---------------------------------------------------------------------------*/
FoamFile
{
    version     2.0;
    format      ascii;
    class       dictionary;
    location    "system";
    object      fvSchemes;
}
// * * * * * * * * * * * * * * * * * * * * * * * * * * * * * * * * * * * * * //

ddtSchemes
{
    default         CrankNicolson 0.5;
}

gradSchemes
{
        default         Gauss linear;
}

divSchemes
{
//    default         Gauss upwind phi;
    default         none;

// alphaEqn
    div(phi,alpha)  Gauss vanLeer;
    div(phir,alpha) Gauss linear;
// UEqn
    div(phi.a,U.a)    Gauss limitedLinearV 1;
    div(phi.b,U.b)    Gauss limitedLinearV 1;
    div(phiRa,Ua)   Gauss limitedLinear 1;
    div(phiRb,Ub)   Gauss limitedLinear 1;
    div(Rca)        Gauss linear;
    div(Rcb)        Gauss linear;
// pEqn
    div(alpha,nu) Gauss linear;
// k and EpsilonEqn
    div(phi.b,k.b)     Gauss limitedLinear 1;
    div(phi.b,omega.b) Gauss limitedLinear 1;
    div(phi.b,epsilon.b) Gauss limitedLinear 1;
// ThetaEqn
    div(phi,Theta)  Gauss limitedLinear 1;
// alphaPlastic
    div(phia,alphaPlastic)    Gauss upwind;
// pa
    div(phia,pa_new_value)    Gauss upwind;
}

laplacianSchemes
{
    default         none;
// alphaEqn
    laplacian(Da,alpha.a)  Gauss linear corrected;
// UEqn
    laplacian(nuEffa,U.a) Gauss linear corrected;
    laplacian(nuEffb,U.b) Gauss linear corrected;
    laplacian(nuFra,U.a)  Gauss linear corrected;
// pEqn
    laplacian((rho*(1|A(U))),p_rbgh) Gauss linear corrected;
// k and EpsilonEqn 
    laplacian(DkEff,k) Gauss linear corrected;
    laplacian(DkEff,beta) Gauss linear corrected;
    laplacian(DomegaEff,omega.b) Gauss linear corrected;
    laplacian(DepsilonEff,epsilon.b) Gauss linear corrected;
    laplacian(DepsilonEff,beta) Gauss linear corrected;
//ThetaEqn
    laplacian(kappa,Theta) Gauss linear corrected;
    laplacian(kappaAlpha,alpha) Gauss linear corrected;
}

interpolationSchemes
{
    default  linear;
}

snGradSchemes
{
    default         corrected;
}

fluxRequired
{
    default         no;
    p_rbgh               ;
}


// ************************************************************************* //
