/*--------------------------------*- C++ -*----------------------------------*\
| =========                 |                                                 |
| \\      /  F ield         | OpenFOAM: The Open Source CFD Toolbox           |
|  \\    /   O peration     | Version:  2.2.0                                 |
|   \\  /    A nd           | Web:      www.OpenFOAM.org                      |
|    \\/     M anipulation  |                                                 |
\*---------------------------------------------------------------------------*/
FoamFile
{
    version     2.0;
    format      ascii;
    class       dictionary;
    object      blockMeshDict;
}
// * * * * * * * * * * * * * * * * * * * * * * * * * * * * * * * * * * * * * //

scale 0.02;

vertices
(
    (0     0 0)
    (6.283 0 0)
    (0     1 0)
    (6.283 1 0)
    (0     2 0)
    (6.283 2 0)
    (0     0 3.142)
    (6.283 0 3.142)
    (0     1 3.142)
    (6.283 1 3.142)
    (0     2 3.142)
    (6.283 2 3.142)
);

blocks
(
    hex (0 1 3 2 6 7 9 8) (100 40 80) simpleGrading (1 6.06 1)
    hex (2 3 5 4 8 9 11 10) (100 40 80) simpleGrading (1 0.165 1)
);

edges
(
);

boundary
(
    bottomWall
    {
        type            wall;
        faces           ((0 1 7 6));
    }
    topWall
    {
        type            wall;
        faces           ((4 10 11 5));
    }

    sides1_half0
    {
        type            cyclic;
        neighbourPatch  sides1_half1;
        faces           ((0 2 3 1));
    }
    sides1_half1
    {
        type            cyclic;
        neighbourPatch  sides1_half0;
        faces           ((6 7 9 8));
    }

    sides2_half0
    {
        type            cyclic;
        neighbourPatch  sides2_half1;
        faces           ((2 4 5 3));
    }
    sides2_half1
    {
        type            cyclic;
        neighbourPatch  sides2_half0;
        faces           ((8 9 11 10));
    }

    inout1_half0
    {
        type            cyclic;
        neighbourPatch  inout1_half1;
        faces           ((1 3 9 7));
    }
    inout1_half1
    {
        type            cyclic;
        neighbourPatch  inout1_half0;
        faces           ((0 6 8 2));
    }

    inout2_half0
    {
        type            cyclic;
        neighbourPatch  inout2_half1;
        faces           ((3 5 11 9));
    }
    inout2_half1
    {
        type            cyclic;
        neighbourPatch  inout2_half0;
        faces           ((2 8 10 4));
    }
);

mergePatchPairs
(
);

// ************************************************************************* //
