/*--------------------------------*- C++ -*----------------------------------*\
| =========                 |                                                 |
| \\      /  F ield         | OpenFOAM: The Open Source CFD Toolbox           |
|  \\    /   O peration     | Version:  1.7.1                                 |
|   \\  /    A nd           | Web:      www.OpenFOAM.com                      |
|    \\/     M anipulation  |                                                 |
\*---------------------------------------------------------------------------*/
FoamFile
{
    version     2.0;
    format      ascii;
    class       dictionary;
    location    "system";
    object      controlDict;
}
// * * * * * * * * * * * * * * * * * * * * * * * * * * * * * * * * * * * * * //

application     sedFoam_rbgh;

startFrom       startTime;

startTime       0;

stopAt          endTime;

endTime         8;
//endTime         16;

deltaT          2e-4;

writeControl    runTime;

writeInterval   4.;

purgeWrite      0;

writeFormat     binary;

writePrecision  6;

writeCompression off;

timeFormat      general;

timePrecision   6;

runTimeModifiable true;

maxAlphaCo  1;

// Favre averaging section

favreAveraging     true;  // To enable Favre average mode keep it true or otherwise keep it false

StartAverageTime   4;  // Time from where you want to start averaging

favreAverage_fluid true;   // To save the Favre average files 
TKEbudgetLES_fluid false;   // Compute fluid phase TKE Budget
favreAverage_solid true;   // To save the Favre average files 
TKEbudgetLES_solid false;   // Compute solid phase TKE Budget

// ************************************************************************* //
