/*--------------------------------*- C++ -*----------------------------------*\
| =========                 |                                                 |
| \\      /  F ield         | OpenFOAM: The Open Source CFD Toolbox           |
|  \\    /   O peration     | Version:  1.7.1                                 |
|   \\  /    A nd           | Web:      www.OpenFOAM.com                      |
|    \\/     M anipulation  |                                                 |
\*---------------------------------------------------------------------------*/
FoamFile
{
    version     2.0;
    format      ascii;
    class       dictionary;
    object      blockMeshDict;
}
// * * * * * * * * * * * * * * * * * * * * * * * * * * * * * * * * * * * * * //

convertToMeters 1;
// 
vertices        
(
    (0.0   -0.05  0.025)//0
    (0.08  -0.05  0.025)//1
    (0.08  0      0.025)//2
    (0.08  0.15   0.025)//3 
    (0.0   0.15   0.025)//4
    (0.0   0      0.025)//5

    (0.0  -0.05 -0.025)//6
    (0.08 -0.05 -0.025)//7
    (0.08  0     -0.025)//8
    (0.08  0.15  -0.025)//9
    (0.0   0.15  -0.025)//10
    (0.0   0     -0.025) //11
);

blocks          
(
    hex (0 1 7 6 5 2 8 11) (400 1 100 ) simpleGrading (1 1 0.1 )
    hex (5 2 8 11 4 3 9 10) (400 1 300 ) simpleGrading (1 1 10 )
);

edges           
(
);

boundary         
(
    inandouthalf21 
    {
     type   cyclic;
     faces 
	    ((0 6 11 5));
     neighbourPatch inandouthalf22;
    }
    inandouthalf22
    {
     type cyclic;
     faces ((1 2 8 7));
     neighbourPatch inandouthalf21;
    }
    inandouthalf11
    {
     type   cyclic;
     faces  (
             (5 11 10 4));
     neighbourPatch inandouthalf12;
    }
   inandouthalf12
    {
     type cyclic;
     faces ((2 8 9 3));
     neighbourPatch inandouthalf11;
    }
    top
    { 
     type wall;
        faces ((3 4 10 9));
    }
    walls 
    {
     type wall;
     faces ((0 1 7 6));
    }
    frontAndBackPlanes
    {
    type empty;
    faces (
           (0 5 2 1)
           (5 4 3 2)
           (6 7 8 11)
           (11 8 9 10)
          );
    }
);

mergePatchPairs
(
);

// ************************************************************************* //
