/*--------------------------------*- C++ -*----------------------------------*\
| =========                 |                                                 |
| \\      /  F ield         | OpenFOAM: The Open Source CFD Toolbox           |
|  \\    /   O peration     | Version:  2.4.0                                 |
|   \\  /    A nd           | Web:      www.OpenFOAM.org                      |
|    \\/     M anipulation  |                                                 |
\*---------------------------------------------------------------------------*/
FoamFile
{
    version     2.0;
    format      ascii;
    class       volScalarField;
    location    "0";
    object      alpha_a;
}
// * * * * * * * * * * * * * * * * * * * * * * * * * * * * * * * * * * * * * //

dimensions      [0 0 0 0 0 0 0];

internalField   uniform 0;  

boundaryField
{
    cylinder
    {
	type            zeroGradient;
    }
    inlet
    {
         type            groovyBC;
         valueExpression "inletprofilealpha(pos().y)/100.";
         lookuptables    (
             {
             name            inletprofilealpha;
             file        "$FOAM_CASE/1d_profil/alpha.xy";
             outOfBounds     clamp;
             }
         );	
    }
    outlet
    {
        type            zeroGradient;
    }
    lateralfront
    {
        type            empty;
    }
    lateralback
    {
        type            empty;
    }
    bottom
    {
        type            zeroGradient;
    }
    surface
    {
        type            symmetryPlane;
    }
}


// ************************************************************************* //
