/*--------------------------------*- C++ -*----------------------------------*\
| =========                 |                                                 |
| \\      /  F ield         | OpenFOAM: The Open Source CFD Toolbox           |
|  \\    /   O peration     | Version:  2.4.0                                 |
|   \\  /    A nd           | Web:      www.OpenFOAM.org                      |
|    \\/     M anipulation  |                                                 |
\*---------------------------------------------------------------------------*/
FoamFile
{
    version     2.0;
    format      ascii;
    class       volScalarField;
    location    "0";
    object      k;
}
// * * * * * * * * * * * * * * * * * * * * * * * * * * * * * * * * * * * * * //

dimensions      [0 2 -2 0 0 0 0];

internalField     uniform 1e-6;

boundaryField
{
    cylinder
    {
	type		fixedValue;
	value		uniform 0.000000001;
    }
    inlet
    {
        type            groovyBC;
        variables       "tramp=4;";
        valueExpression "(time()<=tramp) ? 8.7e-5*(time()/tramp)*(time()/tramp) : 8.7e-5";
    }
    outlet
    {
        type            zeroGradient;
    }
    lateralfront
    {
        type            empty;
    }
    lateralback
    {
        type            empty;
    }
    bottom
    {
        type            kqRWallFunction;
        value           uniform 2.5e-3;
    }
    surface
    {
        type            symmetryPlane;
    }
}


// ************************************************************************* //
