/*--------------------------------*- C++ -*----------------------------------*\
| =========                 |                                                 |
| \\      /  F ield         | OpenFOAM: The Open Source CFD Toolbox           |
|  \\    /   O peration     | Version:  2.4.0                                 |
|   \\  /    A nd           | Web:      www.OpenFOAM.org                      |
|    \\/     M anipulation  |                                                 |
\*---------------------------------------------------------------------------*/
FoamFile
{
    version     2.0;
    format      ascii;
    class       volScalarField;
    location    "0";
    object      omega;
}
// * * * * * * * * * * * * * * * * * * * * * * * * * * * * * * * * * * * * * //

dimensions      [0 0 -1 0 0 0 0];

internalField   uniform 10.; 

boundaryField
{
    cylinder
    {
        type            omegaWallFunction;
        value           uniform 10.;
        kn              0.536e-5;
    }
    inlet
    {
        type            groovyBC;
        valueExpression "(pos().y <= -0.024) ? 1000. : 100*pow(k,0.5)/(0.09*0.1*0.23)";
    }
    outlet
    {
        type            zeroGradient;
    }

    lateralfront
    {
        type            empty;
    }
    lateralback
    {
        type            empty;
    }
    surface
    {
        type            symmetryPlane;
    }
    bottom
    {
        type            zeroGradient;
    }
    defaultFaces
    {
        type            empty;
    }
}


// ************************************************************************* //
