/*--------------------------------*- C++ -*----------------------------------*\
| =========                 |                                                 |
| \\      /  F ield         | OpenFOAM: The Open Source CFD Toolbox           |
|  \\    /   O peration     | Version:  1.7.1                                 |
|   \\  /    A nd           | Web:      www.OpenFOAM.com                      |
|    \\/     M anipulation  |                                                 |
\*---------------------------------------------------------------------------*/
FoamFile
{
    version     2.0;
    format      ascii;
    class       dictionary;
    object      blockMeshDict;
}
// * * * * * * * * * * * * * * * * * * * * * * * * * * * * * * * * * * * * * //

convertToMeters 1;
// 
vertices        
(
    (0.00   0.00   0.001)//0
    (1.00   0.00   0.001)//1
    (1.00   0.02   0.001)//2
    (1.00   0.28   0.001)//3 
    (0.00   0.28   0.001)//4
    (0.00   0.02   0.001)//5

    (0.00   0.00  -0.001)//6
    (1.00   0.00  -0.001)//7
    (1.00   0.02   -0.001)//8
    (1.00   0.28  -0.001)//9
    (0.00   0.28  -0.001)//10
    (0.00   0.02  -0.001) //11
);

blocks          
(
    hex (0 1 7 6 5 2 8 11) (200 1 4) simpleGrading (1 1 1)
    hex (5 2 8 11 4 3 9 10) (200 1 52) simpleGrading (1 1 1)
);

edges           
(
);

boundary         
(
    inletBot 
    {
     type   wall;
     faces 
//((0 5 11 6));
	    ((0 5 11 6));
    }
    outletTop
    {
     type   patch;
     faces  (
             (2 8 9 3));
    }
   inletTop
    {
     type patch;
     faces ((5 4 10 11));
//(12 13 15 14));
    }
    outletBot
    {
     type wall;
     faces ((1 7 8 2));
    }
    top
    { 
     type patch;
        faces ((4 3 9 10));
//	       (13 4 10 15));
    }
    walls 
    {
     type wall;
     faces ((0 6 7 1));
//	    (12 14 11 5)); 
    }
    front
    {
    type empty;
    faces (
           (0 1 2 5)
           (5 2 3 4)
          );
    }
    back
    {
    type empty;
    faces (
           (6 11 8 7)
           (11 10 9 8)
          );
    }
);

mergePatchPairs
(
);

// ************************************************************************* //
