/*--------------------------------*- C++ -*----------------------------------*\
| =========                 |                                                 |
| \\      /  F ield         | OpenFOAM: The Open Source CFD Toolbox           |
|  \\    /   O peration     | Version:  2.1.0                                 |
|   \\  /    A nd           | Web:      www.OpenFOAM.org                      |
|    \\/     M anipulation  |                                                 |
\*---------------------------------------------------------------------------*/
FoamFile
{
    version     2.0;
    format      ascii;
    class       dictionary;
    location    "system";
    object      setFieldsDict;
}
// * * * * * * * * * * * * * * * * * * * * * * * * * * * * * * * * * * * * * //

expressions
 (
        alpha
        {
        field alpha_a; //field to initialise
        fields
        (
        z alpha
        );
        lookuptables (
        {
        name inletprofilealpha;
        outOfBounds clamp;
        file "$FOAM_CASE/1d_profil/alpha.xy";
        }
        );
        value uniform 0;
        expression "inletprofilealpha(pos().y)";
        keepPatches 1;
}   
        Ua
        {
        field Ua; //field to initialise
        fields
        (
        z Ua
        );
        lookuptables (
        {
        name inletprofilesedvel;
        outOfBounds clamp;
        file "$FOAM_CASE/1d_profil/U.xy";
        }
        );
        value uniform (1 0 0);
        expression "vector(inletprofilesedvel(pos().y),0,0)";
        keepPatches 1;
}
        fluidvelocity
        {
        field Ub; //field to initialise
        fields
        (
        z Ub
        );
        lookuptables (
        {
        name inletprofilefvel;
        outOfBounds clamp;
        file "$FOAM_CASE/1d_profil/U.xy";
        }
        );
        value uniform (1 0 0);
        expression "vector(inletprofilefvel(pos().y),0,0)";
        keepPatches 1;
}

 );

// ************************************************************************* //







