/*--------------------------------*- C++ -*----------------------------------*\
| =========                 |                                                 |
| \\      /  F ield         | OpenFOAM: The Open Source CFD Toolbox           |
|  \\    /   O peration     | Version:  v2306                                 |
|   \\  /    A nd           | Website:  www.openfoam.com                      |
|    \\/     M anipulation  |                                                 |
\*---------------------------------------------------------------------------*/
FoamFile
{
    version     2.0;
    format      ascii;
    class       dictionary;
    object      blockMeshDict;
}

// * * * * * * * * * * * * * * * * * * * * * * * * * * * * * * * * * * * * * //


vertices
(
    (-2.5 -2.5 -2.5)
    (2.5 -2.5 -2.5)
    (2.5 2.5 -2.5)
    (-2.5 2.5 -2.5)
    (-2.5 -2.5 2.5)
    (2.5 -2.5 2.5)
    (2.5 2.5 2.5)
    (-2.5 2.5 2.5)
);

blocks
(
    hex (0 1 2 3 4 5 6 7) movingZone (13 13 13) simpleGrading (1 1 1)
);

boundary
(
    oversetPatch
    {
        type overset;
        faces ((1 2 6 5)
               (0 4 7 3)
               (2 3 7 6)
               (0 1 5 4)
               (4 5 6 7)
               (0 3 2 1));
    }



);

mergePatchPairs
(
);


// ************************************************************************* //
