/*--------------------------------*- C++ -*----------------------------------*\
| =========                 |                                                 |
| \\      /  F ield         | OpenFOAM: The Open Source CFD Toolbox           |
|  \\    /   O peration     | Version:  v2006                                 |
|   \\  /    A nd           | Website:  www.openfoam.com                      |
|    \\/     M anipulation  |                                                 |
\*---------------------------------------------------------------------------*/
FoamFile
{
    version     2.0;
    format      ascii;
    class       dictionary;
    object      fvSchemes;
}
// * * * * * * * * * * * * * * * * * * * * * * * * * * * * * * * * * * * * * //

ddtSchemes
{
    default         Euler;
}

gradSchemes
{
    default         Gauss linear;
    grad(T)         Gauss linear;
}

divSchemes
{
    default         none;
// alphaEqn
    div(phi,alpha)  Gauss upwind;
    div(phir,alpha) Gauss upwind;
// alphaPlastic_Eqn    
    div(phia,alphaPlastic)   Gauss limitedLinear01 1;
// ShearInduced_Eqn
    div(phia,pa_new_value)   Gauss limitedLinear01 1;
// UEqn
    div(phi.a,U.a)    Gauss limitedLinearV 1;
    div(phi.b,U.b)    Gauss limitedLinearV 1;
    div(phiRa,Ua)   Gauss limitedLinear 1;
    div(phiRb,Ub)   Gauss limitedLinear 1;
    div(Rca)        Gauss linear;
    div(Rcb)        Gauss linear;
// pEqn
    div(alpha,nu)   Gauss linear;
// k and EpsilonEqn
    div(phi.b,k.b)     Gauss limitedLinear 1;
    div(phi.b,epsilon.b) Gauss limitedLinear 1;
// ThetaEqn
    div(phi,Theta)  Gauss limitedLinear 1;
}

laplacianSchemes
{
    default         Gauss linear corrected;
// alphaEqn
    laplacian(Da,alpha.a)  Gauss linear corrected;
// UEqn
    laplacian(nuEffa,U.a) Gauss linear corrected;
    laplacian(nuEffb,U.b) Gauss linear corrected;
    laplacian(nuFra,U.a)  Gauss linear corrected;
// pEqn
    laplacian((rho*(1|A(U))),p_rbgh) Gauss linear corrected;
// k and EpsilonEqn 
    laplacian(DkEff,k) Gauss linear corrected;
    laplacian(DkEff,beta) Gauss linear corrected;
    laplacian(DepsilonEff,epsilon) Gauss linear corrected;
    laplacian(DepsilonEff,beta) Gauss linear corrected;
//ThetaEqn
    laplacian(kappa,Theta) Gauss linear corrected;
}

interpolationSchemes
{
    default         linear;
}

snGradSchemes
{
    default         corrected;
}

oversetInterpolation
{
    method         cellVolumeWeight;

    //method              trackingInverseDistance;
    //searchBoxDivisions  2{(100 100 1)};
}

fluxRequired
{
    default         no;
    pcorr           ;
    p_rbgh               ;
    alpha.a               ;
}
oversetInterpolationSuppressed
{
    grad(p_rbgh);
    surfaceIntegrate(phiHbyA);
}

// ************************************************************************* //
