/*--------------------------------*- C++ -*----------------------------------*\
| =========                 |                                                 |
| \\      /  F ield         | OpenFOAM: The Open Source CFD Toolbox           |
|  \\    /   O peration     | Version:  1.7.1                                 |
|   \\  /    A nd           | Web:      www.OpenFOAM.com                      |
|    \\/     M anipulation  |                                                 |
\*---------------------------------------------------------------------------*/
FoamFile
{
    version     2.0;
    format      ascii;
    class       dictionary;
    location    "system";
    object      controlDict;
}
// * * * * * * * * * * * * * * * * * * * * * * * * * * * * * * * * * * * * * //

application     sedFoam;

startFrom       latestTime;

startTime       340;

stopAt          endTime;

endTime         220;

deltaT          1e-6;

writeControl    adjustableRunTime;

writeInterval   1e-1;

purgeWrite      0;

writeFormat     binary;

writePrecision  6;

writeCompression false;

timeFormat      general;

timePrecision   6;

runTimeModifiable on;

adjustTimeStep  true;

maxCo           0.5;

maxAlphaCo      0.5;

maxDeltaT       2e-4;

libs (
"libgroovyBC.so"
"libgroovyStandardBCs.so"
     );



// ************************************************************************* //
