/*--------------------------------*- C++ -*----------------------------------*\
| =========                 |                                                 |
| \\      /  F ield         | OpenFOAM: The Open Source CFD Toolbox           |
|  \\    /   O peration     | Version:  plus                                  |
|   \\  /    A nd           | Web:      www.OpenFOAM.com                      |
|    \\/     M anipulation  |                                                 |
\*---------------------------------------------------------------------------*/
FoamFile
{
    version     2.0;
    format      ascii;
    class       dictionary;
    object      decomposeParDict;
}
// * * * * * * * * * * * * * * * * * * * * * * * * * * * * * * * * * * * * * //

numberOfSubdomains  20;

method          hierarchical;


//simpleCoeffs
//{
  //  n               (2 3  1);
  //  delta           0.00001;
//}

coeffs
{
    n           (2 2 5);
    delta       0.00001; // default=0.001
    //order       xyz;   // default=xzy
}

// ************************************************************************* //
