/*--------------------------------*- C++ -*----------------------------------*\
| =========                 |                                                 |
| \\      /  F ield         | OpenFOAM: The Open Source CFD Toolbox           |
|  \\    /   O peration     | Version:  plus                                  |
|   \\  /    A nd           | Web:      www.OpenFOAM.com                      |
|    \\/     M anipulation  |                                                 |
\*---------------------------------------------------------------------------*/
FoamFile
{
    version     2.0;
    format      ascii;
    class       dictionary;
    location    "constant";
    object      transportProperties;
}
// * * * * * * * * * * * * sediment properties * * * * * * * * * * * * //
phasea
{
    rho             rho [ 1 -3 0 0 0 ] 970.01;
    nu              nu [ 0 2 -1 0 0 ] 1e-6;
    d               d [ 0 1 0 0 0 0 0 ] 290e-6;
    hExp            hExp [ 0 0  0 0 0 0 0 ] 3.15;  // hindrance exponent for drag: beta^(-hExp) (2.65 by default)
}
// * * * * * * * * * * * * fluid properties * * * * * * * * * * * * //
phaseb
{
    rho             rho [ 1 -3 0 0 0 ] 970;
    nu              nu [ 0 2 -1 0 0 0 0 ] 3.845e-4;
    d               d [ 0 1 0 0 0 0 0] 290e-6;
}
//*********************************************************************** //
transportModel  Newtonian;

nu              nu [ 0 2 -1 0 0 0 0 ] 3.845e-4 ;

nuMax           nuMax [0 2 -1 0 0 0 0] 1e3;      // viscosity limiter for the Frictional model (required for stability)

alphaSmall      alphaSmall [ 0 0 0 0 0 0 0 ] 1e-6;  // minimum volume fraction (phase a) for division by alpha

// ************************************************************************* //
