/*--------------------------------*- C++ -*----------------------------------*\
| =========                 |                                                 |
| \\      /  F ield         | OpenFOAM: The Open Source CFD Toolbox           |
|  \\    /   O peration     | Version:  v2006                                 |
|   \\  /    A nd           | Website:  www.openfoam.com                      |
|    \\/     M anipulation  |                                                 |
\*---------------------------------------------------------------------------*/
FoamFile
{
    version     2.0;
    format      ascii;
    class       dictionary;
    object      topoSetDict;
}
// * * * * * * * * * * * * * * * * * * * * * * * * * * * * * * * * * * * * * //

actions
(
    {
        name    c0;
        type    cellSet;
        action  new;
        source  regionsToCell;
        insidePoints ((0.01 0.01 0.001));
    }

    {
        name    c1;
        type    cellSet;
        action  new;
        source  cellToCell;
        set     c0;
    }

    {
        name    c1;
        type    cellSet;
        action  invert;
    }

    {
        name    c2;
        type    cellSet;
        action  new;
        source  regionsToCell;
        insidePoints ((0.065 0.04 0.001));
        set     c1;
    }

    {
        name    c1;
        type    cellSet;
        action  subtract;
        source  cellToCell;
        set     c2;
    }

    // Select box to remove from region 1 and 2
    {
        name    box;
        type    cellSet;
        action  new;
        source  cellToCell;
        set     c1;
    }

    {
        name    box;
        type    cellSet;
        action  add;
        source  cellToCell;
        set     c2;
    }

    {
        name    box;
        type    cellSet;
        action  subset;
        source  boxToCell;
        boxes
        (
            (0.05 0.045 -100)(0.07 0.055 100)
        );
    }

    {
        name    box;
        type    cellSet;
        action  invert;
    }
);


// ************************************************************************* //
