/*--------------------------------*- C++ -*----------------------------------*\
| =========                 |                                                 |
| \\      /  F ield         | OpenFOAM: The Open Source CFD Toolbox           |
|  \\    /   O peration     | Version:  2.1.0                                 |
|   \\  /    A nd           | Web:      www.OpenFOAM.org                      |
|    \\/     M anipulation  |                                                 |
\*---------------------------------------------------------------------------*/
FoamFile
{
    version     2.0;
    format      ascii;
    class       dictionary;
    location    "system";
    object      setFieldsDict;
}
// * * * * * * * * * * * * * * * * * * * * * * * * * * * * * * * * * * * * * //

expressions
 (
	sedimentvelocity
	{
	field U.a; //field to initialise
	fields
	(
	z U.a
	);
	lookuptables (
	{
	name inletprofilesedvel;
	outOfBounds clamp;
	file "$FOAM_CASE/1d_profil/Ua0.xy";
	}
	{
	name inletprofilesedvelv;
	outOfBounds clamp;
	file "$FOAM_CASE/1d_profil/Ua1.xy";
	}
	{
	name inletprofilesedvelw;
	outOfBounds clamp;
	file "$FOAM_CASE/1d_profil/Ua2.xy";
	}
	);
        value uniform (1 0 0);
	expression "vector(inletprofilesedvel(pos().y),inletprofilesedvelv(pos().y),0)";
	keepPatches 1;
        }

	fluidvelocity
	{
	field U.b; //field to initialise
	fields
	(
	z U.b
	);
	lookuptables (
	{
	name inletprofilefvel;
	outOfBounds clamp;
	file "$FOAM_CASE/1d_profil/Ub0.xy";
	}
	{
	name inletprofilefvelv;
	outOfBounds clamp;
	file "$FOAM_CASE/1d_profil/Ub1.xy";
	}
	{
	name inletprofilefvelw;
	outOfBounds clamp;
	file "$FOAM_CASE/1d_profil/Ub2.xy";
	}
	);
        value uniform (1 0 0);
       	expression "vector(inletprofilefvel(pos().y), inletprofilefvelv(pos().y), 0)";
	keepPatches 1;
        }

       alpha.a
        {
        field alpha.a; //field to initialise
        fields
        (
        z alpha.a
        );
        lookuptables (
        {
        name inletprofilealpha;
        outOfBounds clamp;
        file "$FOAM_CASE/1d_profil/alpha_a.xy";
        }
        );
        expression "inletprofilealpha(pos().y)";
        keepPatches 1;
        }

       k.b
        {
        field k.b; //field to initialise
        fields
        (
        z k.b
        );
        lookuptables (
        {
        name inletprofilek;
        outOfBounds clamp;
        file "$FOAM_CASE/1d_profil/k.xy";
        }
        );
        expression "inletprofilek(pos().y)";
        keepPatches 1;
        }
/*
       epsilon.b
        {
        field epsilon.b; //field to initialise
        fields
        (
        z epsilon.b
        );
        lookuptables (
        {
        name inletprofilepsilon;
        outOfBounds clamp;
        file "$FOAM_CASE/1d_profil/epsilon.xy";
        }
        );
        expression "inletprofilepsilon(pos().y)";
        keepPatches 1;
        }
*/        
        omega.b
    	{
		field omega.b;
                fields
                    (
                        z omega.b
                    );
                lookuptables (
                    {
                        name inletprofilom;
                        outOfBounds clamp;
                        file "$FOAM_CASE/1d_profil/omega.xy";
                    }
                );
                expression "inletprofilom(pos().y)";
		keepPatches 1;		
	}
 );

// ************************************************************************* //
