/*--------------------------------*- C++ -*----------------------------------*\
| =========                 |                                                 |
| \\      /  F ield         | OpenFOAM: The Open Source CFD Toolbox           |
|  \\    /   O peration     | Version:  v2006                                 |
|   \\  /    A nd           | Website:  www.openfoam.com                      |
|    \\/     M anipulation  |                                                 |
\*---------------------------------------------------------------------------*/
FoamFile
{
    version     2.0;
    format      ascii;
    class       dictionary;
    object      dynamicMeshDict;
}
// * * * * * * * * * * * * * * * * * * * * * * * * * * * * * * * * * * * * * //

dynamicFvMesh       dynamicOversetFvMesh;

//motionSolverLibs (fvMotionSolvers);
//
//solver          displacementLaplacian;
//
//displacementLaplacianCoeffs
//{
//    diffusivity     uniform 1;
//}

solver          multiSolidBodyMotionSolver;

multiSolidBodyMotionSolverCoeffs
{
    movingZone
    {
		
       solidBodyMotionFunction linearMotion;
       linearMotionCoeffs
       {
           velocity       (-0.05 0.0 0);
       }
		
		
    }
}


// ************************************************************************* //
