/*--------------------------------*- C++ -*----------------------------------*\
| =========                 |                                                 |
| \\      /  F ield         | OpenFOAM: The Open Source CFD Toolbox           |
|  \\    /   O peration     | Version:  1.7.1                                 |
|   \\  /    A nd           | Web:      www.OpenFOAM.com                      |
|    \\/     M anipulation  |                                                 |
\*---------------------------------------------------------------------------*/
FoamFile
{
    version     2.0;
    format      ascii;
    class       dictionary;
    location    "constant";
    object      kineticTheoryProperties;
}
// * * * * * * * * * * * * * * * * * * * * * * * * * * * * * * * * * * * * * //

kineticTheory   on;

limitProduction off;

extended        off;

e               e [ 0 0 0 0 0 0 0 ] 0.7;

muPart          muPart [ 0 0 0 0 0 0 0 ] 0.4;

alphaMax        alphaMax [ 0 0 0 0 0 0 0 ] 0.6;

MaxTheta       MaxTheta [ 0 2 -2 0 0 0 0 ] 0.01;

phi             phi [ 0 0 0 0 0 0 0 ] 20.487; //mus = 0.35 = sin(phi*pi/180)

psi             psi [ 0 0 0 0 0 0 0 ] 0.0;

killJ2_       killJ2_ [ 0 0 0 0 0 0 0] 0;

quadraticCorrectionJ1_ quadraticCorrectionJ1_ [ 0 0 0 0 0 0 0 ] 0;

viscosityModel  Syamlal;

conductivityModel Syamlal;

granularPressureModel Lun;

radialModel     CarnahanStarling;

// ************************************************************************* //
