/*--------------------------------*- C++ -*----------------------------------*\
| =========                 |                                                 |
| \\      /  F ield         | OpenFOAM: The Open Source CFD Toolbox           |
|  \\    /   O peration     | Version:  2.4.0                                 |
|   \\  /    A nd           | Web:      www.OpenFOAM.org                      |
|    \\/     M anipulation  |                                                 |
\*---------------------------------------------------------------------------*/
FoamFile
{
    version     2.0;
    format      ascii;
    class       volVectorField;
    location    "0";
    object      Ua;
}
// * * * * * * * * * * * * * * * * * * * * * * * * * * * * * * * * * * * * * //

dimensions      [0 1 -1 0 0 0 0];

internalField   uniform ( 0 0 0 ); 

boundaryField
{
    cylinder
    {
        type            movingWallVelocity;
 
//       type            fixedValue;
        value           uniform (0 0 0);

    }
    inlet
    {
        type            cyclic;
    }
    outlet
    {
        type            cyclic;
    }
    lateralfront
    {
        type            empty;
    }
    lateralback
    {
        type            empty;
    }
    bottom
    {
        type            fixedValue;
        value           uniform (0 0 0);
    }
    surface
    {
        type            zeroGradient;
    }
}


// ************************************************************************* //
