/*--------------------------------*- C++ -*----------------------------------*\
| =========                 |                                                 |
| \\      /  F ield         | OpenFOAM: The Open Source CFD Toolbox           |
|  \\    /   O peration     | Version:  2.1.0                                 |
|   \\  /    A nd           | Web:      www.OpenFOAM.org                      |
|    \\/     M anipulation  |                                                 |
\*---------------------------------------------------------------------------*/
FoamFile
{
    version     2.0;
    format      ascii;
    class       dictionary;
    location    "system";
    object      setFieldsDict;
}
// * * * * * * * * * * * * * * * * * * * * * * * * * * * * * * * * * * * * * //

expressions
 (
	alpha1
    	{
		field alpha;
		expression "0.5*0.5*(1.0+tanh((pos().y-0.054)/(0.0490-pos().y)*10.0))";
                keepPatches 1;
	}
	alpha2
	{
		field alpha;
		expression "0.5";
		condition "pos().y < 0.049";
                keepPatches 1;
	}
 );

// ************************************************************************* //
