/*--------------------------------*- C++ -*----------------------------------*\
| =========                 |                                                 |
| \\      /  F ield         | OpenFOAM: The Open Source CFD Toolbox           |
|  \\    /   O peration     | Version:  2.2.0                                 |
|   \\  /    A nd           | Web:      www.OpenFOAM.org                      |
|    \\/     M anipulation  |                                                 |
\*---------------------------------------------------------------------------*/
FoamFile
{
    version     2.0;
    format      ascii;
    class       dictionary;
    location    "system";
    object      controlDict;
}
// * * * * * * * * * * * * * * * * * * * * * * * * * * * * * * * * * * * * * //

application     sedFoam_rbgh;

startFrom       latestTime;

startTime       0;

stopAt          endTime;

endTime         25;

deltaT          2e-4;

writeControl    adjustableRunTime;

writeInterval   0.25;

purgeWrite      12;

writeFormat     binary;

writePrecision  6;

writeCompression off;

timeFormat      general;

timePrecision   6;

runTimeModifiable true;

adjustTimeStep yes;

maxCo          0.1;

maxAlphaCo     0.1;

maxDeltaT      1e-2;

// Favre averaging section

favreAveraging     false;  // To enable Favre average mode keep it true or otherwise keep it false

StartAverageTime   20;  // Time from where you want to start averaging

favreAverage_fluid true;   // To save the Favre average files 
TKEbudgetLES_fluid false;   // Compute fluid phase TKE Budget
favreAverage_solid true;   // To save the Favre average files 
TKEbudgetLES_solid false;   // Compute solid phase TKE Budget


functions
{
probesVel
{
        type probes;

        probeLocations
        (
                (0.0 0.129 0.0)
                (0.0 0.055 0.0) 
                (0.0 0.050 0.0)
                (0.0 0.045 0.0)
                (0.0 0.043 0.0)
        );

        fields
        (
            U.b
            alpha.a
        );
};
}


libs (
	"libOpenFOAM.so"
	"libsimpleFunctionObjects.so"
	"libsimpleSwakFunctionObjects.so"
	"libswakFunctionObjects.so"
	);


// ************************************************************************* //
