/*--------------------------------*- C++ -*----------------------------------*\
| =========                 |                                                 |
| \\      /  F ield         | OpenFOAM: The Open Source CFD Toolbox           |
|  \\    /   O peration     | Version:  v2306                                 |
|   \\  /    A nd           | Website:  www.openfoam.com                      |
|    \\/     M anipulation  |                                                 |
\*---------------------------------------------------------------------------*/
FoamFile
{
    version     2.0;
    format      ascii;
    class       volScalarField;
    object      p_rgh;
}
// * * * * * * * * * * * * * * * * * * * * * * * * * * * * * * * * * * * * * //

dimensions      [1 -1 -2 0 0 0 0];

internalField   uniform 0;

boundaryField
{
    overset
    {
        type            overset;
    }

    sphere
    {
    
//        type            fixedFluxPressure;
  //      gradient        $internalField;
    type            zeroGradient;
    }

    inlet
    {
        type            zeroGradient;
    }

    outlet
    {
       type            zeroGradient;
    }

    top
    {
        type            fixedValue;
        value           uniform 0;    }
    Bottom
    {
        type            zeroGradient;
    }
    frontAndBack
    {
        type            zeroGradient;

    }
    atmosphere
    {
        type            fixedValue;
        value           uniform 0;   
    }
    earth
    {
        type            fixedValue;
        value           uniform 0; 
    }
}

// ************************************************************************* //
